60
O -0.38110079 0.01046202 0.07038317
O -0.47593333 0.01319704 0.08309651
O -0.36170858 0.08797191 0.0176719
O -0.29440373 -0.21788017 -0.05800833
O -0.32450588 -0.13909469 -0.01274213
O -0.26491784 -0.18662748 -0.14354295
O -0.32332754 0.23286578 -0.07766484
O -0.37553129 0.30591394 -0.11084698
O -0.25349079 0.27433517 -0.02701469
O -0.22198061 -0.00890703 0.29473623
O -0.17540752 0.07460278 0.29913843
O -0.27780339 -0.00120375 0.21736183
O -0.2017125 -0.12787602 -0.30042629
O -0.23891362 -0.16701253 -0.37946255
O -0.11107388 -0.15860613 -0.29880718
O -0.17582946 0.14547359 -0.29323056
O -0.18735496 0.05052644 -0.29704111
O -0.22825754 0.17301377 -0.2180298
O -0.09868545 -0.35973045 0.06733459
O -0.17206104 -0.31531843 0.02483851
O -0.08986922 -0.31590155 0.15197278
O -0.12698284 0.34827011 0.06383577
O -0.04031727 0.35191892 0.0233625
O -0.11163643 0.30939646 0.14994992
O -0.06631077 -0.22812759 0.30644017
O -0.1219155 -0.15037676 0.30141603
O -0.09363361 -0.27200725 0.38700293
O -0.08287635 0.22784567 0.30646242
O 0.00838952 0.19930142 0.30220953
O -0.08922172 0.27572104 0.38910627
O 0.05268588 -0.21575462 -0.29653904
O 0.11909968 -0.14688493 -0.29945363
O 0.07820653 -0.27058031 -0.22234228
O 0.08887517 0.20827101 -0.28512386
O 0.09653141 0.26126435 -0.20578026
O -0.00486877 0.19074571 -0.29332499
O 0.12070744 -0.37708822 -0.08409287
O 0.04198857 -0.37054419 -0.03002961
O 0.12075941 -0.46748626 -0.11556525
O 0.12120744 0.35806228 -0.05593932
O 0.15710676 0.44461412 -0.0754928
O 0.19118575 0.31322418 -0.00845354
O 0.18680608 -0.12189665 0.28962974
O 0.09993349 -0.16141193 0.29697935
O 0.22473916 -0.16172788 0.21129153
O 0.17330739 0.14963178 0.29437136
O 0.22603415 0.17546403 0.21877438
O 0.18205176 0.05439357 0.29831337
O 0.23825601 -0.01357503 -0.30312928
O 0.18404564 0.06508915 -0.29717086
O 0.28693902 -0.00303656 -0.38486805
O 0.3005322 -0.23519162 0.0648301
O 0.36848259 -0.29867752 0.08751503
O 0.23789762 -0.28486072 0.01217833
O 0.32238013 0.2278099 0.07626678
O 0.4091315 0.25272409 0.10813846
O 0.3371735 0.14705479 0.02705207
O 0.36629442 0.00092183 -0.060836
O 0.3451943 -0.08162845 -0.01721771
O 0.32483446 -0.00608914 -0.14682576
